examples/PVDemo/src/demo_input.m
function mpc = demo_input
%DEMO_INPUT

%% MATPOWER Case Format : Version 2
mpc.version = '2';

%%-----  Power Flow Data  -----%%
%% system MVA base
mpc.baseMVA = 100;

%% bus data
%	bus_i	type	Pd	Qd	Gs	Bs	area	Vm	Va	baseKV	zone	Vmax	Vmin
mpc.bus = [
	1	1	0	0	0	0	1	1.05	-0.08	220	1	1.1	0.9;
	2	2	0.59	0.26	0	0	1	0.99	0.06	13.8	1	1.1	0.9;
	3	2	3.52	1.53	0	0	1	0.99	0.05	13.8	1	1.1	0.9;
	4	2	0	0	0	0	1	0.99	-0.04	13.8	1	1.1	0.9;
	5	1	0	0	0	0	1	0.98	0.03	66	1	1.1	0.9;
	6	1	0	0	0	0	1	0.98	0.03	66	1	1.1	0.9;
	7	1	0	0	0	0	1	1.06	-0.06	220	1	1.1	0.9;
	8	2	0	0	0	0	1	0.99	0	10.5	1	1.1	0.9;
	9	2	0	0	0	0	1	0.99	0	10.5	1	1.1	0.9;
	10	3	0	0	0	0	1	0.99	0	10.5	1	1.1	0.9;
	11	1	0	0	0	0	1	0.99	-0.07	132	1	1.1	0.9;
	12	1	0	0	0	0	1	1.06	-0.06	220	1	1.1	0.9;
	13	2	0	0	0	0	1	0.99	0.05	13.8	1	1.1	0.9;
	14	2	0	0	0	0	1	0.99	0.05	13.8	1	1.1	0.9;
	15	1	0	0	0	0	1	1.06	-0.06	220	1	1.1	0.9;
	16	2	0	0	0	0	1	0.99	0.06	11	1	1.1	0.9;
	17	1	0	0	0	0	1	1.05	-0.09	220	1	1.1	0.9;
	18	2	0	0	0	0	1	1.06	0	11	1	1.1	0.9;
	19	2	0	0	0	0	1	1.06	0	11	1	1.1	0.9;
	20	1	0	0	0	0	1	1.05	-0.09	220	1	1.1	0.9;
	21	1	0	0	0	0	1	1.04	-0.09	220	1	1.1	0.9;
	22	1	7.33	7.1	0	0	1	0.96	-0.01	66	1	1.1	0.9;
	23	1	2.84	1.89	0	0	1	0.97	0	66	1	1.1	0.9;
	24	1	5.61	4.73	0	0	1	0.96	-0.02	66	1	1.1	0.9;
	25	1	0	0	0	0	1	1.03	-0.12	220	1	1.1	0.9;
	26	1	0	0	0	0	1	1.03	-0.08	132	1	1.1	0.9;
	27	2	0	0	0	0	1	1.02	-0.02	10.5	1	1.1	0.9;
	28	2	0	0	0	0	1	1.02	-0.02	10.5	1	1.1	0.9;
	29	2	0	0	0	0	1	1.02	-0.03	10.5	1	1.1	0.9;
	30	1	0	0	0	0	1	1.01	-0.04	66	1	1.1	0.9;
	31	1	0	0	0	0	1	1.02	-0.02	66	1	1.1	0.9;
	32	2	0	0	0	0	1	1.03	0.04	6.6	1	1.1	0.9;
	33	2	0	0	0	0	1	1.03	0.04	6.6	1	1.1	0.9;
	34	1	0	0	0	0	1	1.02	-0.02	6.6	1	1.1	0.9;
	35	1	0	0	0	0	1	1.01	-0.04	66	1	1.1	0.9;
	36	2	0	0	0	0	1	1.02	0.01	6.6	1	1.1	0.9;
	37	1	2.83	1.23	0	0	1	0.99	-0.08	11	1	1.1	0.9;
	38	1	5.85	3.53	0	0	1	1.01	-0.04	66	1	1.1	0.9;
	39	1	0	0	0	0	1	1.02	-0.13	220	1	1.1	0.9;
	40	1	0	0	0	0	1	1.02	-0.11	132	1	1.1	0.9;
	41	1	0	0	0	0	1	1.02	-0.13	220	1	1.1	0.9;
	42	2	0	0	0	0	1	1.05	-0.03	11	1	1.1	0.9;
	43	2	0	0	0	0	1	1.05	-0.03	11	1	1.1	0.9;
	44	1	8.26	5.12	0	0	1	0.97	-0.04	66	1	1.1	0.9;
	45	1	4.01	2.73	0	0	1	0.92	-0.07	33	1	1.1	0.9;
	46	1	0	0	0	0	1	1.03	-0.11	220	1	1.1	0.9;
	47	1	0	0	0	0	1	1.02	-0.11	132	1	1.1	0.9;
	48	1	0	0	0	0	1	1.02	-0.13	220	1	1.1	0.9;
	49	1	7.55	2.5	0	0	1	1.03	-0.12	132	1	1.1	0.9;
	50	2	0	0	0	0	1	1.05	-0.07	11	1	1.1	0.9;
	51	2	0	0	0	0	1	1.05	-0.07	11	1	1.1	0.9;
	52	2	0	0	0	0	1	1.05	-0.07	11	1	1.1	0.9;
	53	2	0	0	0	0	1	1.05	-0.07	11	1	1.1	0.9;
	54	1	6.23	2.05	0	0	1	1.01	-0.04	66	1	1.1	0.9;
	55	1	0	0	0	0	1	1.03	-0.12	132	1	1.1	0.9;
	56	1	0	0	0	0	1	1.03	-0.13	132	1	1.1	0.9;
	57	1	0	0	0	0	1	1.02	-0.14	220	1	1.1	0.9;
	58	1	0	0	0	0.3	1	1.02	-0.13	132	1	1.1	0.9;
	59	1	0	0	0	0	1	1.02	-0.13	132	1	1.1	0.9;
	60	1	200.86	68.47	0	0	1	0.98	-0.27	21	1	1.1	0.9;
	61	1	0	0	0	0	1	1.01	-0.15	220	1	1.1	0.9;
	62	1	0	0	0	0	1	1.01	-0.15	220	1	1.1	0.9;
	63	1	110.14	36.81	0	0	1	1	-0.23	33	1	1.1	0.9;
	64	1	0	0	0	0	1	1.02	-0.14	220	1	1.1	0.9;
	65	1	50	12	0	0	1	1.03	-0.14	33	1	1.1	0.9;
	66	1	0	0	0	0	1	1.02	-0.14	220	1	1.1	0.9;
	67	1	80	20	0	0	1	1.03	-0.14	33	1	1.1	0.9;
	68	1	56	14	0	0	1	1.03	-0.14	33	1	1.1	0.9;
	69	1	0	0	0	0	1	1.02	-0.13	132	1	1.1	0.9;
	70	1	34.04	20.9	0	0	1	1	-0.17	33	1	1.1	0.9;
	71	1	0	0	0	0.08	1	1.02	-0.14	220	1	1.1	0.9;
	72	1	0	0	0	0.43	1	1.03	-0.12	132	1	1.1	0.9;
	73	1	0	0	0	0	1	1.03	-0.12	132	1	1.1	0.9;
	74	1	17.33	9.28	0	0	1	1	-0.2	11	1	1.1	0.9;
	75	1	0	0	0	0	1	1.02	-0.13	220	1	1.1	0.9;
	76	1	0	0	0	0.75	1	1.01	-0.22	220	1	1.1	0.9;
	77	1	0.55	0.24	0	0	1	0.99	-0.21	132	1	1.1	0.9;
	78	1	7.76	3.38	0	0	1	1.01	-0.24	66	1	1.1	0.9;
	79	1	0	0	0	0	1	1.01	-0.24	11	1	1.1	0.9;
	80	1	125.01	31.3	0	0	1	1	-0.22	220	1	1.1	0.9;
	81	1	379	92.49	0	0	1	1	-0.23	220	1	1.1	0.9;
	82	1	0	0	0	0	1	1.02	-0.14	132	1	1.1	0.9;
	83	1	25.98	18.84	0	0	1	1.06	-0.15	11	1	1.1	0.9;
	84	1	0	0	0	0	1	1.02	-0.14	132	1	1.1	0.9;
	85	1	15.83	10.92	0	0	1	0.99	-0.17	11	1	1.1	0.9;
	86	1	0	0	0	0	1	1.02	-0.14	132	1	1.1	0.9;
	87	1	8.34	8.96	0	0	1	1	-0.14	11	1	1.1	0.9;
	88	1	0	0	0	0	1	1.03	-0.12	132	1	1.1	0.9;
	89	1	15.47	8.04	0	0	1	0.98	-0.16	11	1	1.1	0.9;
	90	1	0	0	0	0	1	1.03	-0.12	132	1	1.1	0.9;
	91	1	8.26	4.25	0	0	1	1.02	-0.14	11	1	1.1	0.9;
	92	1	0	0	0	0	1	1.03	-0.12	132	1	1.1	0.9;
	93	1	15.11	10	0	0	1	1.03	0.02	132	1	1.1	0.9;
	94	1	0	0	0	0	1	1.03	0.06	132	1	1.1	0.9;
	95	1	0	0	0	0	1	1.03	0.06	11	1	1.1	0.9;
	96	1	0	0	0	0	1	1.03	0.05	132	1	1.1	0.9;
	97	1	0	0	0	0	1	1.03	0.09	132	1	1.1	0.9;
	98	2	0	0	0	0	1	1.03	0.17	11	1	1.1	0.9;
	99	2	0	0	0	0	1	1.03	0.17	11	1	1.1	0.9;
	100	1	0	0	0	0	1	1.03	0.09	11	1	1.1	0.9;
	101	1	0	0	0	0	1	1.03	0.09	11	1	1.1	0.9;
	102	2	3.78	1.25	0	0	1	1.05	0.17	11	1	1.1	0.9;
	103	1	0	0	0	0	1	0.98	-0.2	132	1	1.1	0.9;
	104	2	22.13	4.05	0	0	1	1	-0.29	66	1	1.1	0.9;
	105	1	5.35	2.33	0	0	1	0.98	-0.32	19	1	1.1	0.9;
	106	1	0	0	0	0	1	0.98	-0.32	0.41	1	1.1	0.9;
	107	1	0	0	0	0	1	1	-0.29	11	1	1.1	0.9;
	108	1	0	0	0	0	1	0.98	-0.32	11	1	1.1	0.9;
	109	1	0	0	0	0	1	0.99	-0.15	132	1	1.1	0.9;
	110	1	1.8	0.2	0	0	1	0.99	-0.16	19	1	1.1	0.9;
	111	1	0	0	0	0	1	0.99	-0.16	0.41	1	1.1	0.9;
	112	1	0	0	0	0	1	0.99	-0.16	11	1	1.1	0.9;
	113	1	0	0	0	0	1	0.99	-0.17	132	1	1.1	0.9;
	114	1	3	-1	0	0	1	1.07	-0.2	33	1	1.1	0.9;
	115	1	0	0	0	0	1	0.98	-0.21	132	1	1.1	0.9;
	116	1	20	2.11	0	0	1	0.99	-0.28	66	1	1.1	0.9;
	117	2	4	1.05	0	0	1	1.03	-0.24	6.3	1	1.1	0.9;
	118	1	0	0	0	0	1	1.01	-0.26	33	1	1.1	0.9;
	119	1	0	0	0	0	1	0.99	-0.13	132	1	1.1	0.9;
	120	1	2.57	1.12	0	0	1	1	-0.15	19	1	1.1	0.9;
	121	1	0	0	0	0	1	1	-0.15	0.41	1	1.1	0.9;
	122	1	0	0	0	0	1	1	-0.15	11	1	1.1	0.9;
	123	1	0	0	0	0	1	1.01	-0.01	132	1	1.1	0.9;
	124	1	5	0.92	0	0	1	1.03	-0.07	33	1	1.1	0.9;
	125	1	0	0	0	0	1	1.02	0.04	132	1	1.1	0.9;
	126	2	0	0	0	0	1	1.02	0.1	11	1	1.1	0.9;
	127	2	0	0	0	0	1	1.02	0.1	11	1	1.1	0.9;
	128	1	0	0	0	0	1	1.02	0.1	11	1	1.1	0.9;
	129	1	0	0	0	0	1	1.02	0.1	11	1	1.1	0.9;
	130	1	0	0	0	0	1	1.02	0.04	132	1	1.1	0.9;
	131	1	9	1.47	0	0	1	1.04	-0.03	66	1	1.1	0.9;
	132	1	0	0	0	0	1	1.02	0.05	132	1	1.1	0.9;
	133	1	13	1	0	0	1	1.03	0.04	66	1	1.1	0.9;
	134	1	4.08	1.78	0	0	1	1	0	11	1	1.1	0.9;
	135	1	0	0	0	0	1	1	0	0.41	1	1.1	0.9;
	136	1	0	0	0	0	1	1	0	11	1	1.1	0.9;
	137	1	0	0	0	0	1	1.02	0.08	132	1	1.1	0.9;
	138	2	0	0	0	0	1	1	0.19	11	1	1.1	0.9;
	139	2	2.27	0.99	0	0	1	1	0.19	11	1	1.1	0.9;
	140	1	0	0	0	0	1	1	0.19	0.41	1	1.1	0.9;
	141	1	0	0	0	0	1	1.02	0.25	11	1	1.1	0.9;
	142	2	0	0	0	0	1	1.02	0.25	11	1	1.1	0.9;
	143	1	8.08	0.5	0	0	1	1.06	0.11	66	1	1.1	0.9;
	144	2	0	0	0	0	1	1.06	0.18	11	1	1.1	0.9;
	145	1	0	0	0	0	1	1.03	0.11	33	1	1.1	0.9;
	146	1	0	0	0	0	1	1.06	0.11	6.6	1	1.1	0.9;
	147	1	0	0	0	0	1	1.06	0.11	11	1	1.1	0.9;
	148	1	0	0	0	0	1	1.06	0.14	0.38	1	1.1	0.9;
	149	1	0	0	0	0	1	1.06	0.11	0.22	1	1.1	0.9;
	150	1	0	0	0	0	1	1.06	0.11	0.38	1	1.1	0.9;
	151	1	0	0	0	0	1	1.06	0.11	0.22	1	1.1	0.9;
	152	1	0	0	0	0	1	1.06	0.11	6.6	1	1.1	0.9;
	153	1	0	0	0	0	1	1.06	0.11	6.6	1	1.1	0.9;
	154	1	0	0	0	0	1	1.06	0.11	0.22	1	1.1	0.9;
	155	1	0.01	0.01	0	0	1	1.03	-0.09	132	1	1.1	0.9;
	156	1	17.38	4.4	0	0	1	1.03	-0.15	66	1	1.1	0.9;
	157	1	0	0	0	0	1	1.03	-0.09	132	1	1.1	0.9;
	158	1	0	0	0	0	1	1.02	-0.09	132	1	1.1	0.9;
	159	1	10.14	2.7	0	0	1	1.03	-0.14	66	1	1.1	0.9;
	160	1	0	0	0	0	1	1.03	-0.14	11	1	1.1	0.9;
	161	1	0	0	0	0	1	1.03	-0.09	132	1	1.1	0.9;
	162	1	2.87	0.4	0	0	1	1	-0.12	11	1	1.1	0.9;
	163	1	0	0	0	0	1	1.01	-0.11	33	1	1.1	0.9;
	164	1	0	0	0	0	1	1	-0.12	0.41	1	1.1	0.9;
	165	1	0	0	0	0	1	1.01	-0.11	11	1	1.1	0.9;
	166	1	0	0	0	0	1	1.02	-0.1	132	1	1.1	0.9;
	167	1	7.26	0.4	0	0	1	1	-0.13	11	1	1.1	0.9;
	168	1	0	0	0	0	1	1	-0.13	0.41	1	1.1	0.9;
	169	1	0	0	0	0	1	1	-0.13	11	1	1.1	0.9;
	170	1	0	0	0	0	1	1.04	-0.11	132	1	1.1	0.9;
	171	1	0	0	0	0	1	1	-0.13	19	1	1.1	0.9;
	172	1	0	0	0	0	1	1.01	-0.09	132	1	1.1	0.9;
	173	1	1.73	0.2	0	0	1	1.01	-0.1	19	1	1.1	0.9;
	174	1	0	0	0	0	1	1.01	-0.1	0.41	1	1.1	0.9;
	175	1	0	0	0	0	1	1.01	-0.1	11	1	1.1	0.9;
	176	1	0	0	0	0	1	1.03	-0.07	132	1	1.1	0.9;
	177	1	0	0	0	0	1	1	-0.07	220	1	1.1	0.9;
	178	1	5.2	3	0	0	1	0.98	-0.1	11	1	1.1	0.9;
	179	1	0	0	0	0	1	1	-0.08	69	1	1.1	0.9;
	180	1	0	0	0	0	1	1	-0.08	69	1	1.1	0.9;
	181	1	0	0	0	0	1	1	-0.08	69	1	1.1	0.9;
	182	1	0	0	0	0	1	1	-0.08	69	1	1.1	0.9;
	183	1	0	0	0	0	1	1	-0.08	69	1	1.1	0.9;
	184	1	5.21	3	0	0	1	0.98	-0.1	11	1	1.1	0.9;
	185	1	9.67	1.6	0	0	1	1.01	-0.16	66	1	1.1	0.9;
	186	2	0	0	0	0	1	1.01	-0.12	6.6	1	1.1	0.9;
	187	1	0	0	0	0	1	1.01	-0.16	11	1	1.1	0.9;
	188	1	0	0	0	0	1	1	-0.08	220	1	1.1	0.9;
	189	1	0	0	0	0	1	1	-0.08	220	1	1.1	0.9;
];

%% generator data
%	bus	Pg	Qg	Qmax	Qmin	Vg	mBase	status	Pmax	Pmin	Pc1	Pc2	Qc1min	Qc1max	Qc2min	Qc2max	ramp_agc	ramp_10	ramp_30	ramp_q	apf
mpc.gen = [
	10	69.3	0	38	-20	0.99	69.3	1	228	0	0	0	0	0	0	0	0	0	0	0	0;
	2	90	0	34	-20	0.99	106.6	1	115	0	0	0	0	0	0	0	0	0	0	0	0;
	3	90	0	34	-20	0.99	106.6	1	95	0	0	0	0	0	0	0	0	0	0	0	0;
	4	45	0	17	-10	0.99	53.3	1	128	0	0	0	0	0	0	0	0	0	0	0	0;
	8	29.01	0	15	-15	0.99	69.3	1	30	0	0	0	0	0	0	0	0	0	0	0	0;
	9	29.01	0	16	-16	0.99	69.3	1	32	0	0	0	0	0	0	0	0	0	0	0	0;
	13	60	0	42	-20	0.99	81.5	1	236	0	0	0	0	0	0	0	0	0	0	0	0;
	14	60	0	42	-20	0.99	81.5	1	164	0	0	0	0	0	0	0	0	0	0	0	0;
	16	45	0	17	-10	0.99	53.3	1	164	0	0	0	0	0	0	0	0	0	0	0	0;
	18	60	0	42	-20	1.06	66.67	1	151	0	0	0	0	0	0	0	0	0	0	0	0;
	19	60	0	42	-20	1.06	66.67	1	124	0	0	0	0	0	0	0	0	0	0	0	0;
	27	13	0	11.6	-5	1.02	19.4	1	46	0	0	0	0	0	0	0	0	0	0	0	0;
	28	13	0	11.6	-5	1.02	19.4	1	63	0	0	0	0	0	0	0	0	0	0	0	0;
	29	13	0	7	-5	1.02	21	1	13	0	0	0	0	0	0	0	0	0	0	0	0;
	32	11	0	6	-5	1.03	16.5	1	11	0	0	0	0	0	0	0	0	0	0	0	0;
	33	11	0	9.9	-5	1.03	16.5	1	20	0	0	0	0	0	0	0	0	0	0	0	0;
	36	14.6	0	3.3	-2	1.02	18.2	1	52	0	0	0	0	0	0	0	0	0	0	0	0;
	42	40	0	21	-20	1.05	55	1	42	0	0	0	0	0	0	0	0	0	0	0	0;
	43	40	0	22	-20	1.05	55	1	166	0	0	0	0	0	0	0	0	0	0	0	0;
	50	30	0	20	-20	1.05	40	1	72	0	0	0	0	0	0	0	0	0	0	0	0;
	51	30	0	20	-20	1.05	40	1	88	0	0	0	0	0	0	0	0	0	0	0	0;
	52	30	0	20	-20	1.05	40	1	112	0	0	0	0	0	0	0	0	0	0	0	0;
	53	30	0	20	-20	1.05	40	1	111	0	0	0	0	0	0	0	0	0	0	0	0;
	98	50	0	23	-16	1.03	55	1	121	0	0	0	0	0	0	0	0	0	0	0	0;
	99	50	0	23	-16	1.03	55	1	65	0	0	0	0	0	0	0	0	0	0	0	0;
	102	60	0	30	-26	1.05	67.5	1	218	0	0	0	0	0	0	0	0	0	0	0	0;
	104	4	0	3.3	-3.3	1	10	1	11	0	0	0	0	0	0	0	0	0	0	0	0;
	117	6	0	2.5	0	1.03	20.2	1	6	0	0	0	0	0	0	0	0	0	0	0	0;
	126	38	0	20	-12	1.02	60	1	40	0	0	0	0	0	0	0	0	0	0	0	0;
	127	38	0	22	-12	1.02	60	1	101	0	0	0	0	0	0	0	0	0	0	0	0;
	138	30	0	18.7	-16	1	37.5	1	58	0	0	0	0	0	0	0	0	0	0	0	0;
	139	30	0	18.7	-16	1	37.5	1	95	0	0	0	0	0	0	0	0	0	0	0	0;
	142	3	0	1.3	0	1.02	3.5	1	7	0	0	0	0	0	0	0	0	0	0	0	0;
	144	20	0	11	0	1.06	28	1	21	0	0	0	0	0	0	0	0	0	0	0	0;
	186	6	0	3	0	1.01	10	1	6	0	0	0	0	0	0	0	0	0	0	0	0;
];

%% branch data
%	fbus	tbus	r	x	b	rateA	rateB	rateC	ratio	angle	status	angmin	angmax
mpc.branch = [
	1	7	0.0055	0.0334	0.04711	320	320	320	1	0	1	-30	30;
	1	17	0.00059	0.00818	0.02064	475	475	475	1	0	1	-30	30;
	1	21	0.00138	0.00908	0.0128	333	333	333	1	0	1	-30	30;
	1	46	0.0075	0.04531	0.06412	320	320	320	1	0	1	-30	30;
	1	71	0.00607	0.08107	0.20636	388	388	388	1	0	1	-30	30;
	5	6	0	0.0001	0	9900	9900	9900	1	0	1	-30	30;
	5	23	0.1134	0.2371	0.0034	57	57	57	1	0	1	-30	30;
	6	22	0.1892	0.4045	0.0057	58	58	58	1	0	1	-30	30;
	7	12	0.0008	0.00758	0.0122	396	396	396	1	0	1	-30	30;
	7	15	0.00118	0.00525	0.00734	276	276	276	1	0	1	-30	30;
	11	172	0.0414	0.186	0.03803	165	165	165	1	0	1	-30	30;
	12	17	0.00186	0.01775	0.02631	398	398	398	1	0	1	-30	30;
	17	20	0.0015	0.01421	0.02098	396	396	396	1	0	1	-30	30;
	17	76	0.01123	0.10655	0.15787	294	294	294	1	0	1	-30	30;
	17	76	0.00673	0.0629	0.22871	394	394	394	1	0	1	-30	30;
	21	25	0.00702	0.04602	0.06492	332	332	332	1	0	1	-30	30;
	22	24	0.09229	0.11961	0.00156	46	46	46	1	0	1	-30	30;
	23	24	0.12833	0.28719	0.00422	59	59	59	1	0	1	-30	30;
	24	44	0.1	0.15	0.002	49	49	49	1	0	1	-30	30;
	25	57	0.005	0.0328	0.0456	332	332	332	1	0	1	-30	30;
	26	40	0.02416	0.06049	0.01107	126	126	126	1	0	1	-30	30;
	30	35	0.006	0.015	0	63	63	63	1	0	1	-30	30;
	31	35	0.0239	0.0599	0.0007	63	63	63	1	0	1	-30	30;
	35	38	0	0.0001	0	9900	9900	9900	1	0	1	-30	30;
	35	44	0.0615	0.1591	0.0024	64	64	64	1	0	1	-30	30;
	35	54	0.0399	0.1001	0.0011	63	63	63	1	0	1	-30	30;
	39	41	0.00023	0.00222	0.00329	400	400	400	1	0	1	-30	30;
	39	48	0.00019	0.00178	0.00263	394	394	394	1	0	1	-30	30;
	39	57	0.00187	0.01776	0.02631	397	397	397	1	0	1	-30	30;
	40	47	0.00055	0.00324	0.00018	189	189	189	1	0	1	-30	30;
	41	46	0.0054	0.03262	0.04616	320	320	320	1	0	1	-30	30;
	41	57	0.00255	0.01541	0.0218	320	320	320	1	0	1	-30	30;
	41	75	0.0009	0.00852	0.01259	396	396	396	1	0	1	-30	30;
	49	55	0.00068	0.00191	0.02173	133	133	133	1	0	1	-30	30;
	49	58	0.00677	0.01915	0.19623	133	133	133	1	0	1	-30	30;
	55	56	0.0083	0.03772	0.00758	167	167	167	1	0	1	-30	30;
	56	69	0.00352	0.00996	0.10204	133	133	133	1	0	1	-30	30;
	57	71	0.00208	0.01308	0.01975	326	326	326	1	0	1	-30	30;
	57	71	0.00208	0.01308	0.01975	326	326	326	1	0	1	-30	30;
	57	76	0.0088	0.0534	0.076	320	320	320	1	0	1	-30	30;
	58	59	0.0038	0.0084	0.0219	118	118	118	1	0	1	-30	30;
	58	69	0.0046	0.017	0.0033	151	151	151	1	0	1	-30	30;
	59	82	0.0005	0.0023	0.0325	168	168	168	1	0	1	-30	30;
	61	71	0.00041	0.00262	0.0046	328	328	328	1	0	1	-30	30;
	62	71	0.00041	0.00262	0.0046	328	328	328	1	0	1	-30	30;
	64	71	0.00041	0.00262	0.0046	328	328	328	1	0	1	-30	30;
	66	71	0.00041	0.00262	0.0046	328	328	328	1	0	1	-30	30;
	69	84	0.0032	0.0057	0.1054	107	107	107	1	0	1	-30	30;
	71	75	0.0022	0.0212	0.0321	399	399	399	1	0	1	-30	30;
	72	73	0.0011	0.0046	0.001	161	161	161	1	0	1	-30	30;
	72	92	0.00465	0.01776	0.00547	154	154	154	1	0	1	-30	30;
	72	93	0.0253	0.101	0.0219	157	157	157	1	0	1	-30	30;
	76	80	0.0007	0.004	0.0061	311	311	311	1	0	1	-30	30;
	76	81	0.0004	0.00377	0.00557	395	395	395	1	0	1	-30	30;
	76	81	0.00039	0.0037	0.00547	396	396	396	1	0	1	-30	30;
	77	103	0.0106	0.0476	0.00985	166	166	166	1	0	1	-30	30;
	82	86	0.00196	0.00418	0.04905	116	116	116	1	0	1	-30	30;
	88	90	0.00402	0.00674	0.10825	104	104	104	1	0	1	-30	30;
	90	92	0.0001	0.00042	0.00591	161	161	161	1	0	1	-30	30;
	93	96	0.00354	0.0214	0.00392	192	192	192	1	0	1	-30	30;
	94	96	0.0029	0.01159	0.00251	157	157	157	1	0	1	-30	30;
	96	97	0.00583	0.03524	0.00646	192	192	192	1	0	1	-30	30;
	103	119	0.0409	0.1829	0.03775	166	166	166	1	0	1	-30	30;
	109	113	0.0248	0.1112	0.0227	166	166	166	1	0	1	-30	30;
	109	119	0.0178	0.08	0.01636	166	166	166	1	0	1	-30	30;
	113	115	0.0429	0.1927	0.03945	160	160	160	1	0	1	-30	30;
	119	123	0.0385	0.1727	0.0356	166	166	166	1	0	1	-30	30;
	123	125	0.018	0.0797	0.0159	165	165	165	1	0	1	-30	30;
	125	130	0.0169	0.075	0.0153	165	165	165	1	0	1	-30	30;
	130	132	0.0839	0.2156	0.0427	127	127	127	1	0	1	-30	30;
	132	137	0.0435	0.1952	0.04	157	157	157	1	0	1	-30	30;
	133	143	0.35284	0.5564	0.005	47	47	47	1	0	1	-30	30;
	137	176	0.06485	0.29293	0.06014	105	105	105	1	0	1	-30	30;
	141	142	0	0.0001	0	9900	9900	9900	1	0	1	-30	30;
	155	157	0.01419	0.01638	0.10193	87	87	87	1	0	1	-30	30;
	155	158	0.01663	0.07017	0.01485	161	161	161	1	0	1	-30	30;
	155	161	0.0264	0.11823	0.0242	166	166	166	1	0	1	-30	30;
	155	176	0.01322	0.04968	0.08516	153	153	153	1	0	1	-30	30;
	159	185	0.30532	0.5096	0.003	51	51	51	1	0	1	-30	30;
	161	166	0.0399	0.1791	0.0367	166	166	166	1	0	1	-30	30;
	166	170	0	-0.40174	0	78	78	78	1	0	1	-30	30;
	170	172	0.0883	0.4	0.0838	77	77	77	1	0	1	-30	30;
	177	188	0.00219	0.03499	0.0818	509	509	509	1	0	1	-30	30;
	188	189	0	0.0001	0	9900	9900	9900	1	0	1	-30	30;
	1	2	0.00481	0.14783	0	213	213	213	1	0	1	-30	30;
	1	3	0.00481	0.14783	0	213	213	213	1	0	1	-30	30;
	1	4	0.00292	0.113	0	279	279	279	1	0	1	-30	30;
	5	2	0.01616	0.101	0	308	308	308	1	0	1	-30	30;
	6	3	0.01616	0.101	0	308	308	308	1	0	1	-30	30;
	7	8	0.00373	0.129	0	244	244	244	1	0	1	-30	30;
	7	9	0.00373	0.129	0	244	244	244	1	0	1	-30	30;
	7	10	0.00373	0.129	0	244	244	244	1	0	1	-30	30;
	7	11	0.002	0.1081	0	292	292	292	1	0	1	-30	30;
	12	13	0.00444	0.15	0	210	210	210	1	0	1	-30	30;
	12	14	0.00444	0.15	0	210	210	210	1	0	1	-30	30;
	15	16	0.0064	0.1285	0	245	245	245	1	0	1	-30	30;
	17	18	0.00637	0.12825	0	245	245	245	1	0	1	-30	30;
	17	19	0.00637	0.12825	0	245	245	245	1	0	1	-30	30;
	25	26	0.00258	0.126	0	250	250	250	1	0	1	-30	30;
	26	27	0.00823	0.1094	0	287	287	287	1	0	1	-30	30;
	26	28	0.0081	0.1098	0	286	286	286	1	0	1	-30	30;
	26	29	0.00519	0.099	0	318	318	318	1	0	1	-30	30;
	26	30	0.00583	0.1167	0	270	270	270	1	0	1	-30	30;
	31	32	0.0035	0.119	0	265	265	265	1	0	1	-30	30;
	31	33	0.0035	0.119	0	265	265	265	1	0	1	-30	30;
	31	34	0.00049	0.11797	0	267	267	267	1	0	1	-30	30;
	35	36	0.00425	0.0649	0	485	485	485	1	0	1	-30	30;
	35	37	0.16	1.6	0	19	19	19	1	0	1	-30	30;
	39	40	0.0011	0.0525	0	601	601	601	1	0	1	-30	30;
	41	42	0.0064	0.1285	0	245	245	245	1	0	1	-30	30;
	41	43	0.0064	0.1285	0	245	245	245	1	0	1	-30	30;
	44	45	0.05	0.1	0	282	282	282	1	0	1	-30	30;
	49	50	0.00522	0.07661	0	411	411	411	1	0	1	-30	30;
	49	51	0.00522	0.07661	0	411	411	411	1	0	1	-30	30;
	49	52	0.00522	0.07661	0	411	411	411	1	0	1	-30	30;
	49	53	0.00522	0.07661	0	411	411	411	1	0	1	-30	30;
	57	58	0.0011	0.0427	0	739	739	739	1	0	1	-30	30;
	61	60	0.002	0.0515	0	612	612	612	1	0	1	-30	30;
	62	63	0.00256	0.12	0	263	263	263	1	0	1	-30	30;
	64	65	0.00256	0.12	0	263	263	263	1	0	1	-30	30;
	66	67	0.00256	0.12	0	263	263	263	1	0	1	-30	30;
	66	68	0.00256	0.12	0	263	263	263	1	0	1	-30	30;
	69	70	0.0027	0.06	0	525	525	525	1	0	1	-30	30;
	71	72	0.0011	0.06	0	526	526	526	1	0	1	-30	30;
	73	74	0.01	0.1	0	314	314	314	1	0	1	-30	30;
	76	77	0.0018	0.0608	0	519	519	519	1	0	1	-30	30;
	77	78	0.00378	0.0806	0	391	391	391	1	0	1	-30	30;
	78	79	0.015	0.27	0	116	116	116	1	0	1	-30	30;
	82	83	0.0015	0.0031	0	9172	9172	9172	1	0	1	-30	30;
	85	84	0.003	0.06	0	525	525	525	1	0	1	-30	30;
	87	86	0.003	0.06	0	525	525	525	1	0	1	-30	30;
	89	88	0.0036	0.072	0	438	438	438	1	0	1	-30	30;
	91	90	0.0036	0.072	0	438	438	438	1	0	1	-30	30;
	94	95	0.00615	0.12	0	262	262	262	1	0	1	-30	30;
	94	102	0.00615	0.12	0	262	262	262	1	0	1	-30	30;
	97	98	0.00282	0.09414	0	335	335	335	1	0	1	-30	30;
	97	99	0.00282	0.09414	0	335	335	335	1	0	1	-30	30;
	97	100	0.0042	0.14004	0	225	225	225	1	0	1	-30	30;
	97	101	0.0042	0.14004	0	225	225	225	1	0	1	-30	30;
	103	104	0.00347	0.115	0	274	274	274	1	0	1	-30	30;
	104	105	0.006	0.06	0	523	523	523	1	0	1	-30	30;
	104	107	0.0044	0.072	0	437	437	437	1	0	1	-30	30;
	105	106	0.0045	0.045	0	698	698	698	1	0	1	-30	30;
	105	108	0.0044	0.072	0	437	437	437	1	0	1	-30	30;
	109	110	0.00635	0.0987	0	319	319	319	1	0	1	-30	30;
	110	111	0.0045	0.045	0	698	698	698	1	0	1	-30	30;
	110	112	0.0044	0.072	0	437	437	437	1	0	1	-30	30;
	113	114	0.00477	0.0917	0	343	343	343	1	0	1	-30	30;
	115	116	0.00447	0.1218	0	259	259	259	1	0	1	-30	30;
	116	118	0.00536	0.13302	0	237	237	237	1	0	1	-30	30;
	117	118	0.00431	0.07931	0	397	397	397	1	0	1	-30	30;
	119	120	0.00552	0.0987	0	319	319	319	1	0	1	-30	30;
	120	121	0.004	0.04	0	785	785	785	1	0	1	-30	30;
	120	122	0.0044	0.072	0	437	437	437	1	0	1	-30	30;
	123	124	0.00535	0.12914	0	244	244	244	1	0	1	-30	30;
	125	126	0.00297	0.1051	0	300	300	300	1	0	1	-30	30;
	125	127	0.00297	0.1051	0	300	300	300	1	0	1	-30	30;
	126	128	0.0006	0.06	0	61	61	61	1	0	1	-30	30;
	127	129	0.0006	0.06	0	61	61	61	1	0	1	-30	30;
	130	131	0.00499	0.1432	0	220	220	220	1	0	1	-30	30;
	132	133	0.00492	0.1179	0	267	267	267	1	0	1	-30	30;
	133	134	0.008	0.08	0	392	392	392	1	0	1	-30	30;
	134	135	0.006	0.06	0	523	523	523	1	0	1	-30	30;
	134	136	0.00011	0.0018	0	25	25	25	1	0	1	-30	30;
	137	138	0.0042	0.14004	0	225	225	225	1	0	1	-30	30;
	137	139	0.0042	0.14044	0	224	224	224	1	0	1	-30	30;
	138	140	0.0044	0.044	0	714	714	714	1	0	1	-30	30;
	139	140	0.0044	0.044	0	714	714	714	1	0	1	-30	30;
	139	141	0.00629	0.06169	0	20	20	20	1	0	1	-30	30;
	143	144	0.00694	0.13939	0	226	226	226	1	0	1	-30	30;
	143	145	0.0042	0.0843	0	374	374	374	1	0	1	-30	30;
	143	146	0.01002	0.10017	0	313	313	313	1	0	1	-30	30;
	143	147	0.012	0.12	0	261	261	261	1	0	1	-30	30;
	144	148	0.00573	0.0573	0	548	548	548	1	0	1	-30	30;
	146	152	0.001	0.01	0	12	12	12	1	0	1	-30	30;
	147	149	0.00573	0.0573	0	548	548	548	1	0	1	-30	30;
	148	152	0.00573	0.0573	0	548	548	548	1	0	1	-30	30;
	149	153	0.96	9.55	0	3	3	3	1	0	1	-30	30;
	150	153	2.667	26.67	0	1	1	1	1	0	1	-30	30;
	151	153	2.667	26.67	0	1	1	1	1	0	1	-30	30;
	152	153	0.00288	0.02865	0	12	12	12	1	0	1	-30	30;
	152	154	2.667	26.67	0	1	1	1	1	0	1	-30	30;
	157	156	0.00563	0.12099	0	260	260	260	1	0	1	-30	30;
	158	159	0.00347	0.115	0	274	274	274	1	0	1	-30	30;
	159	160	0.00011	0.0018	0	9900	9900	9900	1	0	1	-30	30;
	161	163	0.006	0.1078	0	292	292	292	1	0	1	-30	30;
	163	162	0.006	0.06	0	523	523	523	1	0	1	-30	30;
	162	164	0.0044	0.044	0	714	714	714	1	0	1	-30	30;
	163	165	0.0044	0.072	0	437	437	437	1	0	1	-30	30;
	166	167	0.00454	0.1077	0	293	293	293	1	0	1	-30	30;
	167	168	0.0044	0.044	0	714	714	714	1	0	1	-30	30;
	167	169	0.0044	0.072	0	25	25	25	1	0	1	-30	30;
	167	171	0.0063	0.0693	0	453	453	453	1	0	1	-30	30;
	172	173	0.00508	0.07896	0	399	399	399	1	0	1	-30	30;
	173	174	0.0045	0.045	0	698	698	698	1	0	1	-30	30;
	173	175	0.0044	0.072	0	437	437	437	1	0	1	-30	30;
	177	176	0.00363	0.12	0	263	263	263	1	0	1	-30	30;
	188	178	0.005	0.12	0	262	262	262	1	0	1	-30	30;
	188	179	0.00501	0.12	0	262	262	262	1	0	1	-30	30;
	188	180	0.00501	0.12	0	262	262	262	1	0	1	-30	30;
	188	181	0.00501	0.12	0	262	262	262	1	0	1	-30	30;
	188	182	0.00501	0.12	0	262	262	262	1	0	1	-30	30;
	188	183	0.00501	0.12	0	262	262	262	1	0	1	-30	30;
	189	184	0.005	0.12	0	262	262	262	1	0	1	-30	30;
	185	186	0.003	0.0585	0	539	539	539	1	0	1	-30	30;
	185	187	0.003	0.0585	0	539	539	539	1	0	1	-30	30;
];

%%-----  OPF Data  -----%%
%% area data
%	area	refbus
mpc.areas = [
	1	1;
];

%% generator cost data
%	1	startup	shutdown	n	x1	y1	...	xn	yn
%	2	startup	shutdown	n	c(n-1)	...	c0
mpc.gencost = [
	2	0	0	3	0	0.950261	0;
	2	0	0	3	0	0.41091	0;
	2	0	0	3	0	0.193324	0;
	2	0	0	3	0	1.08271	0;
	2	0	0	3	0	0.187727	0;
	2	0	0	3	0	0.685695	0;
	2	0	0	3	0	0.908043	0;
	2	0	0	3	0	0.975515	0;
	2	0	0	3	0	1.031722	0;
	2	0	0	3	0	1.078768	0;
	2	0	0	3	0	0.363147	0;
	2	0	0	3	0	1.033987	0;
	2	0	0	3	0	0.994267	0;
	2	0	0	3	0	0.200299	0;
	2	0	0	3	0	0.625656	0;
	2	0	0	3	0	0.947925	0;
	2	0	0	3	0	0.523605	0;
	2	0	0	3	0	0.194502	0;
	2	0	0	3	0	1.05008	0;
	2	0	0	3	0	0.95958	0;
	2	0	0	3	0	1.036212	0;
	2	0	0	3	0	0.812749	0;
	2	0	0	3	0	1.160191	0;
	2	0	0	3	0	0.607646	0;
	2	0	0	3	0	1.043813	0;
	2	0	0	3	0	0.583193	0;
	2	0	0	3	0	1.204295	0;
	2	0	0	3	0	0.207683	0;
	2	0	0	3	0	0.255753	0;
	2	0	0	3	0	0.655194	0;
	2	0	0	3	0	0.529207	0;
	2	0	0	3	0	0.810865	0;
	2	0	0	3	0	0.474352	0;
	2	0	0	3	0	0.197888	0;
	2	0	0	3	0	0.17339	0;
];
